<routes>
    <vType id="car" accel="2.6" decel="4.5" sigma="0.5" length="5" minGap="2.5" maxSpeed="15" guiShape="passenger"/>
        <trip id="veh_0" type="car" depart="87" from="-4253636#2" to="-1323879686#0"/>
    <trip id="veh_1" type="car" depart="61" from="155450996" to="-46180198#2"/>
    <trip id="veh_2" type="car" depart="118" from="4253570#0" to="95100742#2"/>
    <trip id="veh_3" type="car" depart="147" from="-674823272" to="-4253758#0"/>
    <trip id="veh_4" type="car" depart="21" from="17944923#5" to="-4382813#2"/>
    <trip id="veh_5" type="car" depart="32" from="1331267044#2" to="155451005#1"/>
    <trip id="veh_6" type="car" depart="154" from="319017443#3" to="38895571#1"/>
    <trip id="veh_7" type="car" depart="32" from="1172850611" to="154132290#0"/>
    <trip id="veh_8" type="car" depart="19" from="-4253802#8" to="-4360037#2"/>
    <trip id="veh_9" type="car" depart="179" from="-291536486#1" to="1067635363#1"/>
    <trip id="veh_10" type="car" depart="115" from="4082526#1" to="8137387#2"/>
    <trip id="veh_11" type="car" depart="108" from="1033661828#1" to="-154029169#1"/>
    <trip id="veh_12" type="car" depart="48" from="-4360037#2" to="1093697283#1"/>
    <trip id="veh_13" type="car" depart="31" from="-303982846#0" to="236034852#1"/>
    <trip id="veh_14" type="car" depart="19" from="884555188#0" to="-1190292448#1"/>
    <trip id="veh_15" type="car" depart="131" from="-476448486#2" to="4276392#1"/>
    <trip id="veh_16" type="car" depart="149" from="4253713#5" to="4376582"/>
    <trip id="veh_17" type="car" depart="112" from="401189740#0" to="476448490#1"/>
    <trip id="veh_18" type="car" depart="15" from="-305358746#0" to="1323879684#1"/>
    <trip id="veh_19" type="car" depart="159" from="1065127958" to="156155840#1"/>
    <trip id="veh_20" type="car" depart="152" from="741327900#0" to="476448490#0"/>
    <trip id="veh_21" type="car" depart="146" from="438310842#1" to="4253754#0"/>
    <trip id="veh_22" type="car" depart="4" from="-271816292" to="-4253899#2"/>
    <trip id="veh_23" type="car" depart="130" from="-4253548#2" to="-1331267044#1"/>
    <trip id="veh_24" type="car" depart="59" from="4253802#3" to="1119269383#0"/>
    <trip id="veh_25" type="car" depart="12" from="1241652307#0" to="5003469#0"/>
    <trip id="veh_26" type="car" depart="15" from="-4253899#1" to="-401189740#1"/>
    <trip id="veh_27" type="car" depart="138" from="-4253802#7" to="-4258925#1"/>
    <trip id="veh_28" type="car" depart="48" from="204726686#1" to="-779173460#1"/>
    <trip id="veh_29" type="car" depart="121" from="-1093697283#1" to="1065127948"/>
    <trip id="veh_30" type="car" depart="160" from="-38310454#2" to="242166996#0"/>
    <trip id="veh_31" type="car" depart="185" from="4259178#0" to="147997979#0"/>
    <trip id="veh_32" type="car" depart="115" from="198190853#2" to="694567127#1"/>
    <trip id="veh_33" type="car" depart="147" from="1033679087#0" to="235991125#3"/>
    <trip id="veh_34" type="car" depart="18" from="-694567127#0" to="4370938#0"/>
    <trip id="veh_35" type="car" depart="170" from="204726686#2" to="-1323879685#0"/>
    <trip id="veh_36" type="car" depart="168" from="288506485#0" to="202195796#4"/>
    <trip id="veh_37" type="car" depart="73" from="4253636#1" to="49797415#3"/>
    <trip id="veh_38" type="car" depart="38" from="1040319610#1" to="-204726687#4"/>
    <trip id="veh_39" type="car" depart="103" from="147997984#1" to="288506479#3"/>
    <trip id="veh_40" type="car" depart="63" from="-1015989832" to="1033679083"/>
    <trip id="veh_41" type="car" depart="93" from="-38310454#0" to="-585785135#3"/>
    <trip id="veh_42" type="car" depart="30" from="148890713#3" to="-647037416#4"/>
    <trip id="veh_43" type="car" depart="139" from="38310454#0" to="-779173460#4"/>
    <trip id="veh_44" type="car" depart="191" from="1033679085#1" to="154029169#8"/>
    <trip id="veh_45" type="car" depart="158" from="-4253802#0" to="-4258925#2"/>
    <trip id="veh_46" type="car" depart="10" from="-965266908#1" to="-4360037#2"/>
    <trip id="veh_47" type="car" depart="156" from="95094733#1" to="587552474#4"/>
    <trip id="veh_48" type="car" depart="49" from="-4253448" to="-7970884#2"/>
    <trip id="veh_49" type="car" depart="117" from="156155835#2" to="1033637918"/>
    <trip id="veh_50" type="car" depart="83" from="-476448486#0" to="-1033559489#1"/>
    <trip id="veh_51" type="car" depart="166" from="4260281#3" to="-30038926#1"/>
    <trip id="veh_52" type="car" depart="186" from="4382813#3" to="-1093697283#0"/>
    <trip id="veh_53" type="car" depart="166" from="1065127955" to="647023497"/>
    <trip id="veh_54" type="car" depart="178" from="4244822#1" to="154029169#11"/>
    <trip id="veh_55" type="car" depart="114" from="1172850610#1" to="-154132277#0"/>
    <trip id="veh_56" type="car" depart="157" from="-4253802#10" to="754762069#1"/>
    <trip id="veh_57" type="car" depart="135" from="17944923#3" to="-1040319610#0"/>
    <trip id="veh_58" type="car" depart="138" from="-1065177544#1" to="288506485#1"/>
    <trip id="veh_59" type="car" depart="200" from="154029169#0" to="-1065127957#0"/>
    <trip id="veh_60" type="car" depart="97" from="30038924" to="2876892#1"/>
    <trip id="veh_61" type="car" depart="127" from="-1065127951" to="148004647#0"/>
    <trip id="veh_62" type="car" depart="40" from="202195796#8" to="4244822#1"/>
    <trip id="veh_63" type="car" depart="108" from="587552474#2" to="1033637917"/>
    <trip id="veh_64" type="car" depart="22" from="-236033746" to="302026658#4"/>
    <trip id="veh_65" type="car" depart="39" from="-1033559490#2" to="202195798#3"/>
    <trip id="veh_66" type="car" depart="84" from="-548787265#1" to="-1065127951"/>
    <trip id="veh_67" type="car" depart="39" from="-198190853#3" to="-319017443#2"/>
    <trip id="veh_68" type="car" depart="7" from="-154029169#2" to="-884555180#0"/>
    <trip id="veh_69" type="car" depart="26" from="884555187" to="4253802#10"/>
    <trip id="veh_70" type="car" depart="196" from="-1033559490#1" to="-17944923#5"/>
    <trip id="veh_71" type="car" depart="97" from="4992945#2" to="154132288#0"/>
    <trip id="veh_72" type="car" depart="128" from="-202195796#1" to="1343531140"/>
    <trip id="veh_73" type="car" depart="90" from="-49797408#3" to="4253636#1"/>
    <trip id="veh_74" type="car" depart="132" from="476448490#2" to="-884555188#1"/>
    <trip id="veh_75" type="car" depart="195" from="-154029169#7" to="1172850610#1"/>
    <trip id="veh_76" type="car" depart="76" from="587552474#1" to="-4382814#3"/>
    <trip id="veh_77" type="car" depart="122" from="4253758#0" to="1323879684#1"/>
    <trip id="veh_78" type="car" depart="13" from="202195798#1" to="-1323879686#0"/>
    <trip id="veh_79" type="car" depart="6" from="1119269402#1" to="38895571#2"/>
    <trip id="veh_80" type="car" depart="0" from="305358746#4" to="-884555188#0"/>
    <trip id="veh_81" type="car" depart="103" from="491003673#1" to="1093697283#0"/>
    <trip id="veh_82" type="car" depart="169" from="1420204594" to="-884555187"/>
    <trip id="veh_83" type="car" depart="95" from="204726687#2" to="-779173460#3"/>
    <trip id="veh_84" type="car" depart="108" from="156155822#0" to="-1065127949"/>
    <trip id="veh_85" type="car" depart="0" from="-884555172" to="232486342#1"/>
    <trip id="veh_86" type="car" depart="196" from="-1033559490#1" to="17944925#1"/>
    <trip id="veh_87" type="car" depart="200" from="-4253802#5" to="4082552#0"/>
    <trip id="veh_88" type="car" depart="169" from="-4360037#0" to="237708976#2"/>
    <trip id="veh_89" type="car" depart="138" from="-4253801#0" to="-319017443#0"/>
    <trip id="veh_90" type="car" depart="125" from="-303982846#0" to="17944923#3"/>
    <trip id="veh_91" type="car" depart="57" from="156155835#4" to="302026658#7"/>
    <trip id="veh_92" type="car" depart="141" from="202195796#6" to="4236997#1"/>
    <trip id="veh_93" type="car" depart="30" from="827528607#0" to="1067635359"/>
    <trip id="veh_94" type="car" depart="152" from="-884555183#1" to="770905822"/>
    <trip id="veh_95" type="car" depart="41" from="1033661829#0" to="4253372#1"/>
    <trip id="veh_96" type="car" depart="153" from="4236997#0" to="38895571#3"/>
    <trip id="veh_97" type="car" depart="22" from="-1033559490#1" to="156155833#0"/>
    <trip id="veh_98" type="car" depart="144" from="49797408#4" to="236034587#1"/>
    <trip id="veh_99" type="car" depart="77" from="476448490#1" to="1049590470#0"/>
</routes>