<?xml version="1.0" encoding="UTF-8"?>

<!-- generated on 2025-12-15 02:01:49.723041 by Eclipse SUMO randomTrips.py v1_25_0+0000-ac6c5a6752d
<configuration>
    <net-file value="london.net.xml"/>
    <output-trip-file value="london.rou.xml"/>
    <min-distance value="50.0"/>
    <end value="1000.0"/>
    <period value="2.0"/>
</configuration>
-->

<!-- generated on 2025-12-15T02:01:49.404779+05:00 by Eclipse SUMO duarouter 1.25.0
<duarouterConfiguration xmlns:xsi="http://www.w3.org/2001/XMLSchema-instance" xsi:noNamespaceSchemaLocation="http://sumo.dlr.de/xsd/duarouterConfiguration.xsd">

    <input>
        <net-file value="london.net.xml"/>
        <route-files value="london.rou.xml"/>
    </input>

    <output>
        <output-file value="routes.rou.xml"/>
        <alternatives-output value="NUL"/>
    </output>

    <time>
        <begin value="0"/>
        <end value="1000.0"/>
    </time>

    <report>
        <no-warnings value="true"/>
        <ignore-errors value="true"/>
        <no-step-log value="true"/>
    </report>

</duarouterConfiguration>
-->

<routes xmlns:xsi="http://www.w3.org/2001/XMLSchema-instance" xsi:noNamespaceSchemaLocation="http://sumo.dlr.de/xsd/routes_file.xsd">
    <vehicle id="0" depart="0.00">
        <route edges="4082567#2 615662723#0 615662723#1 615662723#2 95100742#0 95100742#1 95100742#2 271816292 95094733#0 95094733#1 95094733#2 1040319610#0 1040319610#1 -1323879686#3 -1323879686#2 -1323879686#1 -1323879686#0 -1323879685#2"/>
    </vehicle>
    <vehicle id="1" depart="2.00">
        <route edges="1018945234#1 43118736#1 43118736#2 43486254#0 43486254#1 43486254#2 211487026 4376580#0 4376580#1 4376580#2 4376580#3 542471107#0 542471107#1 542471107#2 542471107#3 542471107#4 542471107#5 542471107#6 262200663#1 262200663#2 262200663#3 262200663#4 262200663#5 262200663#6 262200663#7 262200663#8 4253462#0 4253462#1 4253462#2 4253462#3 4253462#4 4253462#5 4253462#6 1185526416#0 1185526416#1 669019465#0 669019465#1 241929531#0 241929531#1 232724478#0 232724478#1 232724478#2 232724478#3 1199406460 4256397#0 4256397#1 4256397#2 30279886#0 30279886#1 30279886#2 30279886#3 509518151#0 509518151#1 509518151#2 670578016#0 670578016#1 955518107 41660593#0 41660593#1 41660593#2 41660593#3 41660591#0 41660591#1 41660591#2 -30279582#4 -30279582#3 -30279582#2 -30279582#1 -30279582#0 -570577390#1"/>
    </vehicle>
    <vehicle id="2" depart="4.00">
        <route edges="4258930#0 4258930#1 -4258930#1 -4258930#0 -4258931#3 -4258931#2 -4258931#1 -4258931#0 302690916#1 325435282#0 325435282#1 325435282#2 325435282#3 148004644#0 148004644#1 299682131 461699427#1 461699427#2 209692627 196122555#0 196122555#1 196122555#2 156155822#0 156155822#1 156155823 156155840#0 156155840#1 156155840#2 4370938#0 4370938#1 4370938#2 4370938#3 4370938#4 4370938#5 4370938#6 1065177552#0 1065177552#1 502228877#0 502228877#1 1065177551 4253713#0 4253713#1 4253713#2 4253713#3 4253713#4 4253713#5 4253713#6 4253713#7 4253713#8 4253713#9 4253771#0 4253771#1 236034854#0 236034854#1 236034854#2 236034854#3 236034854#4 -4253679#10 -4253679#9 4253679#9"/>
    </vehicle>
    <vehicle id="3" depart="6.00">
        <route edges="590298787#2 590298787#3 887715777 754762064#1 754762068#1 60494630#0 60494630#1 884555183#0 884555183#1 851719166 884555180#0 884555180#1 147248800#0 147248800#1 884555171 424202400 401189740#0 401189740#1 401189740#2 694565504 851719167 884555167#1 60531130#0 60531130#1 694567127#0 694567127#1 67551930#0 67551930#1 67551930#2 67551930#3 4244822#0 4244822#1 4244822#2 4244822#3 199658589#0 199658589#1 199658589#2 -199658589#2 -199658589#1 -199658589#0 -4376581#2 -4376581#1 -4376581#0 33096423#0 33096423#1 33096423#2 33096423#3 33096423#4 33096423#5 33096424#0 33096424#1 33096424#2 33096424#3 93773949#0 93773949#1 93773949#2 728793122#0 728793122#1 728793122#2 746024419#0 746024419#1 746024419#2 194259717#0 194259717#1 194259717#2 194259717#3 733855113#1 209691453 -955518103 -33608060#1 -33608060#0 -955460952#1 -955460952#0 -955460953#3 -955460953#2 -955460953#1 -955460953#0 955518101#0 955518101#1 4068447#0 4068447#1 4068447#2 977669335#0 977669335#1 977669334 977669332#1 977669331#0 977669331#1 977669329#0 977669329#1 977669340 1182881408 977669330#0 977669330#1 1088929182 977669324 1303317349 2199749#0 -241253344"/>
    </vehicle>
    <vehicle id="4" depart="8.00">
        <route edges="156155840#0 156155840#1 156155840#2 38895571#0 38895571#1 38895571#2 38895571#3 38895571#4 38895571#5 38895571#6 38895571#7 1015989832 204726685#0 204726685#1 204726685#2 204726685#3 204726685#4 202195796#0 202195796#1 202195796#2 202195796#3 202195796#4 202195796#5 202195796#6 202195796#7 202195796#8 -198190853#6 -198190853#5 -198190853#4 -198190853#3 -198190853#2 -198190853#1 -198190853#0 -236034852#4 -236034852#3 -236034852#2 -236034852#1 -236034852#0 -1167228394#0 -724462445#1 -724462445#0 -1339149157#1 -1339149157#0"/>
    </vehicle>
    <vehicle id="5" depart="10.00">
        <route edges="-55026151#0 -209692645#4 -209692645#3 -209692645#2 -209692645#1 -209692645#0 -30279893#5 -30279893#4 -30279893#3 -30279893#2 -30279893#1 -30279893#0 -977669331#1 -977669331#0 -977669332#1 -977669332#0 -977669335#1 -977669335#0 -977669336#1 -977669336#0 -977669337 -977669338 977669341 1065177546 977591946 209690398 2199750 209692626 1414840950 955518099#1 240343067#0 240343067#1 240343067#2 209692628#0 209692628#1 209692628#2 232724498#0 232724498#1 -468720689 43365534#0 43365534#1 240343066#0 240343066#1 240343066#2"/>
    </vehicle>
    <vehicle id="6" depart="12.00">
        <route edges="-1331267044#0 -476448486#2 -476448486#1 -476448486#0 476448486#0 476448486#1 476448486#2 1331267044#0 502230296#4 502230296#5 502230296#6 209692644#0 209692644#1 209692644#2 209692644#3 1362803962 1283819523#0 1283819523#1 1283819523#2 1283819523#3 1362803961 59718434 1362803960#0 1362803960#1 1362803960#2 -977669331#1 -977669331#0 -977669332#1 -977669332#0 -977669335#1 -977669335#0 -977669336#1 -977669336#0 -977669337 -977669338 977669341 1065177546 977591946 209690398 2199750 209692626 1414840950 955518099#1 240343067#0 240343067#1 240343067#2 209692628#0 209692628#1 209692628#2 232724498#0 232724498#1 436938218#0 436938218#1 1018951415#0 1018951415#1 1018951422#0 1018951422#1 38748498#0 38748498#1 38748498#2 38748498#3 1018951420 1018951426#1 1064360339#0 1064360339#1 1131262161#0 1131262161#1 4253890#0 4253890#1 1044356411#0 1044356411#1 1044356411#2 4253812#0 4253812#1 4253812#2 1187614278#0 1187614278#1 4254981#0 4254981#1 747872553#1 747872553#2 4376580#2 4376580#3 4376580#4 -542471105#7 -542471105#6 -542471105#5 -542471105#4 -542471105#3 -542471105#2 -542471105#1 -542471105#0 1094661232#0 1094661232#1 1094661232#2 1094661232#3 1094661232#4 1094661232#5 4376573#0 4376573#1 628424981 133730761#0 133730761#1 4082566#0 4082566#1 4082566#2 4082566#3 4082566#4 4082566#5 4082566#6 -4395794#1 -4395794#0"/>
    </vehicle>
    <vehicle id="7" depart="14.00">
        <route edges="40976543#0 40976543#1 40976543#2 136456829#0 136456829#1 55873935#0 55873935#1 423007010#0 423007010#1 423007010#2 423007010#3 423007010#4 423007010#5 423007010#6 262200662#0 262200662#1 262200662#2 262200662#3 38748498#2 38748498#3 1018951420 1018951426#1 1064360339#0 1064360339#1 1131262161#0 1131262161#1 4253890#0 4253890#1 1131262162#0 1131262162#1 1162831758#1 290405994#0 290405994#1 290405994#2"/>
    </vehicle>
    <vehicle id="8" depart="16.00">
        <route edges="-564099716#0 -884555187 -674823272 -4376583#1 -4376583#0 -1065127949 -1065127948 -884555188#1 -884555188#0 -694567131 -694567127#2 67551930#0 67551930#1 67551930#2 67551930#3 4244822#0 4244822#1 4244822#2 4244822#3 199658589#0 199658589#1 199658589#2 -199658589#2 -199658589#1 -199658589#0 -4376581#2 -4376581#1 -4376581#0 33096423#0 33096423#1 33096423#2 33096423#3 33096423#4 33096423#5 33096424#0 33096424#1 33096424#2 33096424#3 93773949#0 93773949#1 93773949#2 728793122#0 728793122#1 728793122#2 746024419#0 746024419#1 746024419#2 4253925#0 4253925#1 4253925#2 -4082604#2 -4082604#1 -4082604#0 -240343183#6 -240343183#5 -240343183#4 -240343183#3 -240343183#2 -240343183#1 -240343183#0 -232486356#3 -232486356#2 -232486356#1 -232486356#0 4082605 240343066#0 240343066#1 240343066#2 4258932 667552915 667552911#0 667552911#1 1064391192 1064391191 4258928 302690916#0 302690916#1 325435282#0 325435282#1 325435282#2"/>
    </vehicle>
    <vehicle id="9" depart="18.00">
        <route edges="4382813#0 4382813#1 4382813#2 4382813#3 4382813#4 4382813#5 4382814#0 4382814#1 4382814#2 4382814#3 585785135#0 585785135#1 585785135#2 585785135#3 -271816292 -95100742#2 -95100742#1 -95100742#0 -1065127951 -1065127952 -237493876 -1065127950 -1094661232#5 -1094661232#4 -1094661232#3 -1094661232#2 -1094661232#1 -1094661232#0 68543461#0 68543461#1 68543461#2 68543462#0 68543462#1 4253462#0 4253462#1 4253462#2 -4376564#6 -4376564#5 -4376564#4 4393240#0 4393240#1 4393240#2 4393240#3 4393240#4 4393240#5 262200665#1 262200665#2 246902443 -325008373#1 -325008373#0 -4254044#0 240505256#0 240505256#1 240505256#2 240505256#3 423007010#0 423007010#1 4253792#0 4253792#1 4253792#2 673569250#0 673569250#1 4253785#0 4253785#1 4253785#2 4253812#3 4253812#4 4253812#5 4253812#6"/>
    </vehicle>
    <vehicle id="10" depart="20.00">
        <route edges="1184554518#0 1184554518#1 38748216 1184554519 816050579#0 816050579#1 156310004 977669325 -1088929182 -977669330#1 -977669330#0 -977669323 -977669340 -977669329#1 -977669329#0 -977669331#1 -977669331#0 -977669332#1 -977669332#0 -977669335#1 -977669335#0 -977669336#1 -977669336#0 -977669337 -977669338 977669341 1065177546 977591946 209690398 2199750 209692626 1414840950 955518099#1 240343067#0 240343067#1 240343067#2 209692628#0 209692628#1 209692628#2 232724498#0 232724498#1 -468720689 43365534#0 43365534#1 4259091#0 4259091#1 4259091#2 4259091#3 282036542#0 282036542#1 282036542#2 1065177549#0 1065177549#1 282036545 1065177550 4253713#0 4253713#1 4253713#2 4253713#3 4253713#4 4253713#5 4253713#6 -236034852#4 -236034852#3 -236034852#2 -4253802#12 -4253802#11 -4253802#10 -4253802#9 -4253802#8 -4253802#7 -4253802#6 -4253802#5 -4253802#4 -4253802#3 -4253802#2 -4253802#1 -4253802#0"/>
    </vehicle>
    <vehicle id="11" depart="22.00">
        <route edges="8137387#0 8137387#1 8137387#2 4370938#4 4370938#5 4370938#6 502228874#0 502228874#1 502228874#2 502228874#3 502228874#4 18791979 669856888#1 669856888#2 232724588 302690915#0 302690915#1 667554998 1064391191 4258928 302690916#0 302690916#1 325435282#0 325435282#1 325435282#2 325435282#3 148004644#0 148004644#1 299682131 461699427#1 461699427#2 209692627 196122555#0 196122555#1 196122555#2 156155842#0 156155842#1 232486342#0 232486342#1 232486342#2 17944923#0 17944923#1 17944923#2 17944923#3 17944923#4 17944923#5 209692644#0 209692644#1 209692644#2 209692644#3 1362803962 1283819523#0 1283819523#1 1283819523#2 1283819523#3 59850729#0 59850729#1 156155836#0 156155836#1 156155836#2 1443566180 1303317349 2199749#0 2199749#1 1184550844"/>
    </vehicle>
    <vehicle id="12" depart="24.00">
        <route edges="-273139758#1 273139758#1 1339544942#0 1339544942#1 1339544942#2 -236034852#0 -1167228394#0 -165582921#1 -165582921#0 4253804 282034890 4253372#1 282034889 38433761#0 38433761#1 647062687 1094011261 4253832#0 4253832#1 4253832#2 4259131#0 4259131#1 4259131#2 18791975 22760594#0 22760594#1 22760594#2 22760594#3 43365534#0 43365534#1 -4082605 232486356#0 232486356#1 232486356#2 232486356#3 240343183#0 240343183#1 240343183#2 240343183#3 240343183#4 240343183#5 240343183#6 4082604#0 4082604#1 4082604#2 1264969668 1264969667#0 1264969667#1 4257851#0 4257851#1 4257851#2 4257851#3 241929531#0 241929531#1 232724478#0 232724478#1 232724478#2 232724478#3 1199406460 4256397#0 4256397#1 4256397#2 30279886#0 30279886#1 30279886#2 30279886#3 509518151#0 509518151#1 509518151#2 670578016#0 670578016#1 955518107 41660593#0 41660593#1 41660593#2 41660593#3 41660591#0 41660591#1 41660591#2 24865179#0 24865179#1 24865179#2 1040322992 699802882#0 699802882#1 48465025#0 48465025#1 -48465025#1 -48465025#0 -1271099762 -299682133#3 -299682133#2"/>
    </vehicle>
    <vehicle id="13" depart="26.00">
        <route edges="49934757#0 49934757#1 31309016 319017443#0 319017443#1 319017443#2 319017443#3 319017443#4 60531130#0 60531130#1 694567127#0 694567127#1 694567127#2 694567131 884555188#0 884555188#1 1065127948 1065127949 4376583#0 4376583#1 674823272 884555187 674816213 564099716#1 589659240 884555176#0 884555176#1 674816215 884555172 4376582 1040319604 4376586#0 4376586#1 491003673#1 491003673#2 38060395#0 38060395#1"/>
    </vehicle>
    <vehicle id="14" depart="28.00">
        <route edges="4382813#4 4382813#5 4382814#0 4382814#1 4382814#2 4382814#3 585785135#0 585785135#1 585785135#2 585785135#3 -271816292 -95100742#2 -95100742#1 -95100742#0 -1065127951 -1065127952 -237493876 -1065127950 -1094661232#5 -1094661232#4 -1094661232#3 -1094661232#2 -1094661232#1 -1094661232#0 68543461#0 68543461#1 68543461#2 68543462#0 68543462#1 4253462#0 4253462#1 4253462#2 4253462#3 4253462#4 4253462#5 4253462#6 1185526416#0 1185526416#1 669019465#0 669019465#1 241929531#0 241929531#1 232724478#0 232724478#1 232724478#2 232724478#3 1199406460 4256397#0 4256397#1 4256397#2 30279886#0 30279886#1 30279886#2 30279886#3 -615664502#5 -615664502#4 -615664502#3 1253814623 1253814624#1 1253814619#1 1026712077#0 1026712077#1 1026712077#2 1026712077#3 1269138292#0 1269138292#1 4256488#0"/>
    </vehicle>
    <vehicle id="15" depart="30.00">
        <route edges="264966079#1 585785134#0 585785134#1 585785134#2 264966078#2 628429131#0 628429131#1 628429131#2 628429131#3 628429131#4 1049590471 242166996#0 242166996#1 1049590470#0 1049590470#1 116615382#1 116615382#2 233075058 315631030#0 315631030#1 315631030#2 315631030#3 1049590080#1 31039#0 31039#1 31039#2 101982008#0 101982008#1 101982008#2 101982008#3 101982008#4 -299682132 -1067635356 -264965256 264965257#0 264965257#1 264965257#2 264965257#3 912201551 1033660574 2644236 1033664846 590298787#0 590298787#1 590298787#2 590298787#3 887715777 754762064#1 754762068#1 60494630#0 60494630#1 884555183#0"/>
    </vehicle>
    <vehicle id="16" depart="32.00">
        <route edges="136456829#0 136456829#1 55873935#0 55873935#1 423007010#0 423007010#1 4253792#0 4253792#1 4253792#2 673569250#0 673569250#1 4253785#0 4253785#1 4253785#2 1187614278#0 1187614278#1 4254981#0 4254981#1 747872553#1 747872553#2 4376580#2 4376580#3 4376580#4 -542471105#7 -542471105#6 -542471105#5 -542471105#4 -542471105#3 -542471105#2 -542471105#1 -542471105#0 1094661232#0 1094661232#1 1094661232#2 1094661232#3 1094661232#4 1094661232#5 1094661232#6 237493876 1065127952 237493875 95100742#0 95100742#1 95100742#2 271816292 5003469#0 5003469#1 5003469#2 271816293 264966078#0 264966078#1 264966078#2 628429131#0 628429131#1 628429131#2 628429131#3 628429131#4 1049590471 242166996#0 242166996#1 1049590470#0 1049590470#1 116615382#1 116615382#2 233075058 315631030#0 315631030#1 315631030#2 315631030#3 1049590080#1 31039#0 31039#1 31039#2 2876427#0 2876427#1 302026658#0 302026658#2 302026658#3 302026658#4"/>
    </vehicle>
    <vehicle id="17" depart="34.00">
        <route edges="475957303#1 194259717#2 194259717#3 733855113#1 209691453 -955518103 -33608060#1 -33608060#0 -955460952#1 -955460952#0 -955460953#3 -955460953#2 -955460953#1 -955460953#0 955518101#0 955518101#1 4068447#0 4068447#1 4068447#2"/>
    </vehicle>
    <vehicle id="18" depart="36.00">
        <route edges="542471105#3 542471105#4 -542471105#4 -542471105#3 -542471105#2 -542471105#1 -542471105#0 1094661232#0 1094661232#1 1094661232#2 1094661232#3 1094661232#4 1094661232#5 1094661232#6 237493876 1065127952 237493875 95100742#0 95100742#1 95100742#2 271816292 -585785135#3 -585785135#2 -585785135#1 -585785135#0 4992946#0 4992946#1 4992946#2 4992946#3 4992946#4 40412562#0 40412562#1 40412562#2 1065127954#0 1065127954#1 1065127953 303982854#0"/>
    </vehicle>
    <vehicle id="19" depart="38.00">
        <route edges="4253832#0 4253832#1 4253832#2 4259131#0 4259131#1 4259131#2 -18791977#3 -18791977#2 -18791977#1 -18791977#0 7970638#0 7970638#1 7970638#2 96853927 302690921 302690915#0 302690915#1 667554998 1064391191 4258928 302690916#0 302690916#1 325435282#0 325435282#1 325435282#2 325435282#3 148004644#0 148004644#1 299682131 461699427#1 461699427#2 209692627 196122555#0 196122555#1 196122555#2 156155822#0 156155822#1 156155823 -156155821#1 -156155821#0 196122556#0 196122556#1 156155835#0 156155835#1 156155835#2 156155835#3 156155835#4 -154029169#13 -154029169#12 -154029169#11 -154029169#10 -154029169#9 -154029169#8 -154029169#7 -154029169#6 -154029169#5"/>
    </vehicle>
    <vehicle id="20" depart="40.00">
        <route edges="-59207650#1 -59207650#0 59207650#0 59207650#1 622159393#0 622159393#1 622159392 33096424#0 33096424#1 33096424#2 33096424#3 93773949#0 93773949#1 93773949#2 -972210875 -93773949#1 -93773949#0 -33096424#3 -33096424#2 -33096424#1 -33096424#0 -33096423#5 -33096423#4 -33096423#3 -33096423#2 -33096423#1 -33096423#0 4376581#0 4376581#1 4376581#2 199658589#0 199658589#1 199658589#2 1119269402#0 1119269402#1 2876428#0 2876428#1 443322182#1 443322182#2 443322182#3 1119269396#0 1119269396#1 1119269397 -1065127948 -884555188#1 -884555188#0 -694567131 -694567127#2 -694567127#1 -694567127#0 -884555177 -60531130#0 -884555167#1 -884555167#0 -694565504 -147248799 -401189740#1 -401189740#0 1033661829#0 1033661829#1"/>
    </vehicle>
    <vehicle id="21" depart="42.00">
        <route edges="-236034852#1 236034852#1 236034852#2 236034852#3 236034852#4 198190853#0 198190853#1 198190853#2 198190853#3 198190853#4 198190853#5 198190853#6 38310454#0 38310454#1 38310454#2 38310454#3 38310454#4 38310454#5 38310454#6 38310454#7 502228874#0 502228874#1 502228874#2 502228874#3 502228874#4 18791979 669856888#1 669856888#2 232724588 302690915#0 302690915#1 667554998 1064391191 4258928 302690916#0 302690916#1 325435282#0 325435282#1 325435282#2 325435282#3 148004644#0 148004644#1 299682131 461699427#1 461699427#2 209692627 196122555#0 196122555#1 196122555#2 156155842#0 156155842#1 232486342#0 232486342#1 232486342#2 17944924#0 17944924#1 17944924#2 770905822 1067635365 476448493#0 476448493#1 1067635363#0 1067635363#1 476448490#0 476448490#1 476448490#2 19212465#0 19212465#1 154132286#0 154132286#1 -65502488#1 -65502488#0"/>
    </vehicle>
    <vehicle id="22" depart="44.00">
        <route edges="-30279582#2 30279582#2 30279582#3 30279582#4 -41660591#2 -41660591#1 -41660591#0 -41660593#3 -41660593#2 -41660593#1 -41660593#0 -955518107 -670578016#1 -670578016#0 -509518151#2 -509518151#1 -509518151#0 -615664502#5 -615664502#4 -615664502#3 -615664502#2 -615664502#1 -615664502#0 -55026151#4 -55026151#3 -55026151#2 -55026151#1 -55026151#0 -209692645#4 -209692645#3 -209692645#2 -209692645#1 -209692645#0 -30279893#5 -30279893#4 -30279893#3 -30279893#2 -30279893#1 -30279893#0 -977669331#1 -977669331#0 -977669332#1 -977669332#0 -977669335#1 -977669335#0 -977669336#1 -977669336#0 -977669337 -977669338 977669341 1065177546 977591946 209690398 2199750 209692626 1414840950 955518099#1 240343067#0 240343067#1 240343067#2 209692628#0 209692628#1 209692628#2 232724498#0 232724498#1 436938218#0 436938218#1 1018951415#0 1018951415#1 1018951422#0 1018951422#1 38748498#0 38748498#1 38748498#2 38748498#3 1018951420 1018951426#1 1064360339#0 1064360339#1 1018951428#0 1018951428#1 1018951429 399696957 1018943770 1018943771 1067635383 1018943769 1018951432 1067635382#1 1018951427#0 1018951427#1 1018951427#2 1018951427#3"/>
    </vehicle>
    <vehicle id="23" depart="46.00">
        <route edges="4082566#2 4082566#3 4082566#4 4082566#5 4082566#6 4082566#7 4082566#8 4082566#9 1263311764 1263311766#1 1263311767#1 66151802#3 4082521#0 4082521#1 4082563#0 4082563#1 4082563#2 4082563#3 4082563#4 4082563#5 264966079#0 264966079#1 585785134#0 585785134#1 585785134#2 264966078#2 628429131#0 628429131#1 4258964#0 4258964#1 4258963#2 4258963#3 -1323879685#2 -1323879685#1 -1323879685#0 1323879685#0"/>
    </vehicle>
    <vehicle id="24" depart="48.00">
        <route edges="1323879686#1 1323879686#2 1323879686#3 -1033559490#0 -1040319610#0 -95094733#2 -95094733#1 -95094733#0 -585785135#3 -585785135#2 -585785135#1 -585785135#0 -4382814#3 -4382814#2 -4382814#1 -4382814#0 -4382813#5 -4382813#4 -4382813#3 -4382813#2 -4382813#1 -4382813#0 4082596#0 4082596#1 4082596#2 4082596#3 4082596#4 49798450#0 49798450#1 -49798450#1 -49798450#0"/>
    </vehicle>
    <vehicle id="25" depart="50.00">
        <route edges="-977669329#0 30279893#0 30279893#1 30279893#2 30279893#3 30279893#4 30279893#5 209692645#0 209692645#1 209692645#2 209692645#3 209692645#4 55026151#0 55026151#1 55026151#2 55026151#3 55026151#4 615664502#0 615664502#1 615664502#2 615664502#3 615664502#4 615664502#5 509518151#0 509518151#1 509518151#2 670578016#0 670578016#1 955518107 41660593#0 41660593#1 41660593#2 41660593#3 41660591#0 41660591#1 41660591#2 24865179#0 24865179#1 24865179#2 1040322992 699802882#0 699802882#1 48465025#0 48465025#1 -48465025#1 -48465025#0 -1271099762 -299682133#3 -299682133#2 -299682133#1 -299682133#0 1033660574 2644236 1033664846 590298787#0 590298787#1 590298787#2 590298787#3 887715777 754762064#1 754762068#1 -884555170 -851719172#0 -694563839 -694563842 694563842"/>
    </vehicle>
    <vehicle id="26" depart="52.00">
        <route edges="4082612#3 4082612#4 -240343183#6 -240343183#5 -240343183#4 -240343183#3 -240343183#2 -240343183#1 -240343183#0 -232486356#3 -232486356#2 -232486356#1 -232486356#0 232724498#0 232724498#1 -468720689 -22760594#3 -22760594#2 -22760594#1 -22760594#0 -18791975 -4259131#2 -4259131#1 -4259131#0 -4253832#2 -4253832#1 -4253832#0 -1094011261 -647062687 38433762#0 38433762#1"/>
    </vehicle>
    <vehicle id="27" depart="54.00">
        <route edges="-4256640#0 30279582#2 30279582#3 30279582#4 -41660591#2 -41660591#1 -41660591#0 -41660593#3 -41660593#2 -41660593#1 -41660593#0 -955518107 -670578016#1 -670578016#0 -509518151#2 -509518151#1 -509518151#0 -615664502#5 -615664502#4 -615664502#3 -615664502#2 -615664502#1 -615664502#0 1269138290#0 1269138290#1 4256487#0 4256487#1"/>
    </vehicle>
    <vehicle id="28" depart="56.00">
        <route edges="-4253924#1 -4253924#0 236034854#2 236034854#3 236034854#4 198190852#0 198190852#1 198190852#2 724462445#1 -165582921#1 -165582921#0 4253804 282034890 4253372#1 282034889 38433761#0 38433761#1 647062687 1094011261 4253832#0 4253832#1 4253832#2 4259131#0 4259131#1 4259131#2 18791975 22760594#0 22760594#1 22760594#2 22760594#3 43365534#0 43365534#1 -4082605 232486356#0 232486356#1 232486356#2 232486356#3 240343183#0 240343183#1 240343183#2 240343183#3 240343183#4 240343183#5 240343183#6 4082612#5 4082612#6 475957303#1 194259717#2 194259717#3 733855113#1 209691453 -955518103 -33608060#1 -33608060#0 1415923992#0 1415923992#1"/>
    </vehicle>
    <vehicle id="29" depart="58.00">
        <route edges="977088264#0 977088264#1 977088264#2 -972210875 -93773949#1 -93773949#0 -33096424#3 -33096424#2 -33096424#1 -33096424#0 -33096423#5 -33096423#4 -33096423#3 -33096423#2 -33096423#1 -33096423#0 4376581#0 4376581#1 4376581#2 199658589#0 199658589#1 199658589#2 1119269402#0 1119269402#1 2876428#0 2876428#1 443322182#1 443322182#2 443322182#3 1119269396#0 1119269396#1 1119269397 1065127949 4376583#0 4376583#1 674823272 884555187 674816213 564099716#1 589659240 884555176#0 884555176#1 674816215 884555172 4376582 1040319604 -1040319606#1 -1040319606#0 -647062692 -1033559489#1 -1033559489#0 -1033559490#2 -1033559490#1 -1033559490#0 -1040319610#0 -95094733#2 -95094733#1 -95094733#0 -271816292 -95100742#2 -95100742#1 -95100742#0 -1065127951 -1065127952 -237493876 -1065127950 4376573#0 4376573#1 628424981 133730761#0 133730761#1 4082566#0 4082566#1 4082566#2 4082566#3 4082566#4 4082566#5 4082566#6 4082566#7 4082566#8 4082566#9 1263311764 1263311766#1 1263311767#1 66151802#3 4082521#0 4082521#1 66151802#0 66151802#1 4082564#0 4082564#1 4082564#2 4082597#0 4082597#1 4082597#2"/>
    </vehicle>
    <vehicle id="30" depart="60.00">
        <route edges="302690915#0 302690915#1 96795164 302690920 -7970638#2 -7970638#1 -7970638#0 1065177549#0 1065177549#1 282036545 1065177550 4253713#0 4253713#1 4253713#2 4253713#3 4253713#4 4253713#5 4253713#6 4253713#7 4253713#8 4253713#9 4253771#0"/>
    </vehicle>
    <vehicle id="31" depart="62.00">
        <route edges="-60531130#0 60531130#0 60531130#1 694567127#0 694567127#1 67551930#0 67551930#1 67551930#2 67551930#3 4244822#0 4244822#1 4244822#2 4244822#3 199658589#0 199658589#1 199658589#2 -199658589#2 -199658589#1 -199658589#0 -4376581#2 -4376581#1 -4376581#0 33096423#0 33096423#1 33096423#2 33096423#3 33096423#4 33096423#5 33096424#0 33096424#1 33096424#2 33096424#3 93773949#0 93773949#1 93773949#2 728793122#0 728793122#1 728793122#2 746024419#0 746024419#1 746024419#2 194259717#0 194259717#1 194259717#2 194259717#3 733855113#1 209691453 -955518103 -33608060#1 -33608060#0 -955460952#1 -955460952#0 -955460953#3 -955460953#2 -955460953#1 -955460953#0 -209692646#6 -209692646#5 -209692646#4 -209692646#3 -209692646#2 -209692646#1 -209692646#0 -30279893#5 -30279893#4 -30279893#3 -30279893#2 -30279893#1 -30279893#0 -1362803960#2 -1362803960#1"/>
    </vehicle>
    <vehicle id="32" depart="64.00">
        <route edges="1091739572#0 1091739572#1 1091739573#1 590298787#2 590298787#3 887715777 754762064#1 754762068#1 60494630#0 60494630#1 884555183#0 884555183#1 851719166 884555180#0 884555180#1 147248800#0 147248800#1 884555171 424202400 401189740#0 401189740#1 401189740#2 694565504 851719167 884555167#1 60531130#0 60531130#1 694567127#0 694567127#1 67551930#0 67551930#1 67551930#2 67551930#3 4244822#0 4244822#1 4244822#2 4244822#3 199658589#0 199658589#1 199658589#2 -199658589#2 -199658589#1 -199658589#0 -4376581#2 -4376581#1 -4376581#0 33096423#0 33096423#1 33096423#2 33096423#3 33096423#4 33096423#5 33096424#0 33096424#1 33096424#2 33096424#3 93773949#0 93773949#1 93773949#2 728793122#0 728793122#1 728793122#2 746024419#0 746024419#1 746024419#2 194259717#0 194259717#1 194259717#2 194259717#3 733855113#1 209691453 -955518103 -33608060#1 -33608060#0 -955460952#1 -955460952#0 -955460953#3 -955460953#2 -955460953#1 -955460953#0 955518101#0 955518101#1 4068447#0 4068447#1 4068447#2 -977669336#1 -977669336#0"/>
    </vehicle>
    <vehicle id="33" depart="66.00">
        <route edges="-49798167 -49798450#1 -49798450#0 -4082596#4 -4082596#3 -4082596#2 -4082596#1 -4082596#0 4382813#0 4382813#1 4382813#2 4382813#3 4382813#4 4382813#5 4382814#0 4382814#1 4382814#2 4382814#3 585785135#0 585785135#1 585785135#2 585785135#3 -271816292 -95100742#2 -95100742#1 -95100742#0 -1065127951 -1065127952 -237493876 -1065127950 -1094661232#5 -1094661232#4 -1094661232#3 -1094661232#2 -1094661232#1 -1094661232#0 68543461#0 68543461#1 68543461#2 68543462#0 68543462#1 4253462#0 4253462#1 4253462#2 4253462#3 4253462#4 4253462#5 4253462#6 1185526416#0 1185526416#1 669019465#0 669019465#1 241929531#0 241929531#1 232724478#0 232724478#1 232724478#2 232724478#3 1199406460 4256397#0 4256397#1 4256397#2 -30279887#3 -30279887#2 -30279887#1 -30279887#0 1420723354 1420723355#1 728793124#1 728793124#2 728793124#3"/>
    </vehicle>
    <vehicle id="34" depart="68.00">
        <route edges="55873935#0 55873935#1 423007010#0 423007010#1 4253792#0 4253792#1 4253792#2 673569250#0 673569250#1 4253785#0 4253785#1 4253785#2 1187614278#0 1187614278#1 4254981#0 4254981#1 747872553#1 747872553#2 4376580#2 4376580#3 4376580#4 -542471105#7 -542471105#6 -542471105#5 -542471105#4 -542471105#3 -542471105#2 -542471105#1 -542471105#0 1094661232#0"/>
    </vehicle>
    <vehicle id="35" depart="70.00">
        <route edges="647037416#3 647037416#4 -647037416#4 -647037416#3 -647037416#2 -647037416#1 -647037416#0 -49798167 -49798450#1 -49798450#0 -4082596#4 -4082596#3 -4082596#2 -4082596#1 -4082596#0 4382813#0 4382813#1 4382813#2 4382813#3 4382813#4 4382813#5 4382814#0 4382814#1 4382814#2 4382814#3 585785135#0 585785135#1 585785135#2 585785135#3 -271816292 -95100742#2 -95100742#1 -95100742#0 -1065127951 -1065127952 -237493876 -1065127950 -1094661232#5 -1094661232#4 -1094661232#3 -1094661232#2 -1094661232#1 -1094661232#0 68543461#0 68543461#1 68543461#2 68543462#0 68543462#1 4253462#0 4253462#1 4253462#2 4253462#3 4253462#4 4253462#5 4253462#6 1185526416#0 1185526416#1 669019465#0 669019465#1 241929531#0 241929531#1 232724478#0 232724478#1 232724478#2 232724478#3 746024419#0 746024419#1 746024419#2 194259717#0 194259717#1 194259717#2 194259717#3 733855113#1 209691453 -955518103 -33608060#1 -33608060#0 -955460952#1 -955460952#0 -955460953#3 -955460953#2 -955460953#1 -955460953#0 955518101#0 955518101#1 4068447#0 4068447#1 4068447#2 47007862#0 47007862#1 47007861#0 47007861#1 47007861#2 209689477#0 209689477#1 209692627 196122555#0 196122555#1 196122555#2 156155822#0 156155822#1 156155823 156155840#0 156155840#1 156155840#2 38895571#0 38895571#1 38895571#2 38895571#3 38895571#4 38895571#5 38895571#6 38895571#7 1015989832 204726687#0 204726687#1 204726687#2 204726687#3 204726687#4 204726687#5"/>
    </vehicle>
    <vehicle id="36" depart="72.00">