<routes>
    <vType id="type_car" accel="0.8" decel="4.5" sigma="0.5" length="5" minGap="2.5" maxSpeed="8.33" guiShape="passenger"/>
    <vType id="type_bike" accel="0.5" decel="4.5" sigma="0.5" length="2" minGap="2.5" maxSpeed="4.16" guiShape="bicycle"/>
    <vType id="type_pedestrian" accel="0.2" decel="0.5" sigma="0.5" length="0.5" minGap="0.5" maxSpeed="1.39" guiShape="pedestrian"/>

        <flow id="veh_0" type="type_car" begin="0" end="100" number="1" from="edge_0" to="edge_100"/>
    <flow id="veh_1" type="type_car" begin="0" end="100" number="1" from="edge_1" to="edge_99"/>
    <flow id="veh_2" type="type_car" begin="0" end="100" number="1" from="edge_2" to="edge_98"/>
    <flow id="veh_3" type="type_car" begin="0" end="100" number="1" from="edge_3" to="edge_97"/>
    <flow id="veh_4" type="type_car" begin="0" end="100" number="1" from="edge_4" to="edge_96"/>
    <flow id="veh_5" type="type_car" begin="0" end="100" number="1" from="edge_5" to="edge_95"/>
    <flow id="veh_6" type="type_car" begin="0" end="100" number="1" from="edge_6" to="edge_94"/>
    <flow id="veh_7" type="type_car" begin="0" end="100" number="1" from="edge_7" to="edge_93"/>
    <flow id="veh_8" type="type_car" begin="0" end="100" number="1" from="edge_8" to="edge_92"/>
    <flow id="veh_9" type="type_car" begin="0" end="100" number="1" from="edge_9" to="edge_91"/>
    <flow id="veh_10" type="type_car" begin="0" end="100" number="1" from="edge_10" to="edge_90"/>
    <flow id="veh_11" type="type_car" begin="0" end="100" number="1" from="edge_11" to="edge_89"/>
    <flow id="veh_12" type="type_car" begin="0" end="100" number="1" from="edge_12" to="edge_88"/>
    <flow id="veh_13" type="type_car" begin="0" end="100" number="1" from="edge_13" to="edge_87"/>
    <flow id="veh_14" type="type_car" begin="0" end="100" number="1" from="edge_14" to="edge_86"/>
    <flow id="bike_0" type="type_bike" begin="0" end="100" number="1" from="edge_15" to="edge_85"/>
    <flow id="bike_1" type="type_bike" begin="0" end="100" number="1" from="edge_16" to="edge_84"/>
    <flow id="bike_2" type="type_bike" begin="0" end="100" number="1" from="edge_17" to="edge_83"/>
    <flow id="bike_3" type="type_bike" begin="0" end="100" number="1" from="edge_18" to="edge_82"/>
    <flow id="bike_4" type="type_bike" begin="0" end="100" number="1" from="edge_19" to="edge_81"/>
    <flow id="bike_5" type="type_bike" begin="0" end="100" number="1" from="edge_20" to="edge_80"/>
    <flow id="bike_6" type="type_bike" begin="0" end="100" number="1" from="edge_21" to="edge_79"/>
    <flow id="bike_7" type="type_bike" begin="0" end="100" number="1" from="edge_22" to="edge_78"/>
    <flow id="bike_8" type="type_bike" begin="0" end="100" number="1" from="edge_23" to="edge_77"/>
    <flow id="bike_9" type="type_bike" begin="0" end="100" number="1" from="edge_24" to="edge_76"/>
    <flow id="bike_10" type="type_bike" begin="0" end="100" number="1" from="edge_25" to="edge_75"/>
    <flow id="bike_11" type="type_bike" begin="0" end="100" number="1" from="edge_26" to="edge_74"/>
    <flow id="bike_12" type="type_bike" begin="0" end="100" number="1" from="edge_27" to="edge_73"/>
    <flow id="bike_13" type="type_bike" begin="0" end="100" number="1" from="edge_28" to="edge_72"/>
    <flow id="bike_14" type="type_bike" begin="0" end="100" number="1" from="edge_29" to="edge_71"/>
    <flow id="ped_0" type="type_pedestrian" begin="0" end="100" number="1" from="edge_0" to="edge_99"/>
    <flow id="ped_1" type="type_pedestrian" begin="0" end="100" number="1" from="edge_1" to="edge_98"/>
    <flow id="ped_2" type="type_pedestrian" begin="0" end="100" number="1" from="edge_2" to="edge_97"/>
    <flow id="ped_3" type="type_pedestrian" begin="0" end="100" number="1" from="edge_3" to="edge_96"/>
    <flow id="ped_4" type="type_pedestrian" begin="0" end="100" number="1" from="edge_4" to="edge_95"/>
    <flow id="ped_5" type="type_pedestrian" begin="0" end="100" number="1" from="edge_5" to="edge_94"/>
    <flow id="ped_6" type="type_pedestrian" begin="0" end="100" number="1" from="edge_6" to="edge_93"/>
    <flow id="ped_7" type="type_pedestrian" begin="0" end="100" number="1" from="edge_7" to="edge_92"/>
    <flow id="ped_8" type="type_pedestrian" begin="0" end="100" number="1" from="edge_8" to="edge_91"/>
    <flow id="ped_9" type="type_pedestrian" begin="0" end="100" number="1" from="edge_9" to="edge_90"/>
    <flow id="ped_10" type="type_pedestrian" begin="0" end="100" number="1" from="edge_10" to="edge_89"/>
    <flow id="ped_11" type="type_pedestrian" begin="0" end="100" number="1" from="edge_11" to="edge_88"/>
    <flow id="ped_12" type="type_pedestrian" begin="0" end="100" number="1" from="edge_12" to="edge_87"/>
    <flow id="ped_13" type="type_pedestrian" begin="0" end="100" number="1" from="edge_13" to="edge_86"/>
    <flow id="ped_14" type="type_pedestrian" begin="0" end="100" number="1" from="edge_14" to="edge_85"/>
    <flow id="ped_15" type="type_pedestrian" begin="0" end="100" number="1" from="edge_15" to="edge_84"/>
    <flow id="ped_16" type="type_pedestrian" begin="0" end="100" number="1" from="edge_16" to="edge_83"/>
    <flow id="ped_17" type="type_pedestrian" begin="0" end="100" number="1" from="edge_17" to="edge_82"/>
    <flow id="ped_18" type="type_pedestrian" begin="0" end="100" number="1" from="edge_18" to="edge_81"/>
    <flow id="ped_19" type="type_pedestrian" begin="0" end="100" number="1" from="edge_19" to="edge_80"/>
    <flow id="ped_20" type="type_pedestrian" begin="0" end="100" number="1" from="edge_20" to="edge_79"/>
    <flow id="ped_21" type="type_pedestrian" begin="0" end="100" number="1" from="edge_21" to="edge_78"/>
    <flow id="ped_22" type="type_pedestrian" begin="0" end="100" number="1" from="edge_22" to="edge_77"/>
    <flow id="ped_23" type="type_pedestrian" begin="0" end="100" number="1" from="edge_23" to="edge_76"/>
    <flow id="ped_24" type="type_pedestrian" begin="0" end="100" number="1" from="edge_24" to="edge_75"/>
    <flow id="ped_25" type="type_pedestrian" begin="0" end="100" number="1" from="edge_25" to="edge_74"/>
    <flow id="ped_26" type="type_pedestrian" begin="0" end="100" number="1" from="edge_26" to="edge_73"/>
    <flow id="ped_27" type="type_pedestrian" begin="0" end="100" number="1" from="edge_27" to="edge_72"/>
    <flow id="ped_28" type="type_pedestrian" begin="0" end="100" number="1" from="edge_28" to="edge_71"/>
    <flow id="ped_29" type="type_pedestrian" begin="0" end="100" number="1" from="edge_29" to="edge_70"/>
    <flow id="ped_30" type="type_pedestrian" begin="0" end="100" number="1" from="edge_30" to="edge_69"/>
    <flow id="ped_31" type="type_pedestrian" begin="0" end="100" number="1" from="edge_31" to="edge_68"/>
    <flow id="ped_32" type="type_pedestrian" begin="0" end="100" number="1" from="edge_32" to="edge_67"/>
    <flow id="ped_33" type="type_pedestrian" begin="0" end="100" number="1" from="edge_33" to="edge_66"/>
    <flow id="ped_34" type="type_pedestrian" begin="0" end="100" number="1" from="edge_34" to="edge_65"/>
    <flow id="ped_35" type="type_pedestrian" begin="0" end="100" number="1" from="edge_35" to="edge_64"/>
    <flow id="ped_36" type="type_pedestrian" begin="0" end="100" number="1" from="edge_36" to="edge_63"/>
    <flow id="ped_37" type="type_pedestrian" begin="0" end="100" number="1" from="edge_37" to="edge_62"/>
    <flow id="ped_38" type="type_pedestrian" begin="0" end="100" number="1" from="edge_38" to="edge_61"/>
    <flow id="ped_39" type="type_pedestrian" begin="0" end="100" number="1" from="edge_39" to="edge_60"/>
    <flow id="ped_40" type="type_pedestrian" begin="0" end="100" number="1" from="edge_40" to="edge_59"/>
    <flow id="ped_41" type="type_pedestrian" begin="0" end="100" number="1" from="edge_41" to="edge_58"/>
    <flow id="ped_42" type="type_pedestrian" begin="0" end="100" number="1" from="edge_42" to="edge_57"/>
    <flow id="ped_43" type="type_pedestrian" begin="0" end="100" number="1" from="edge_43" to="edge_56"/>
    <flow id="ped_44" type="type_pedestrian" begin="0" end="100" number="1" from="edge_44" to="edge_55"/>
</routes>